Version 4
SHEET 1 5324 1100
WIRE 416 -208 -336 -208
WIRE 416 -80 416 -208
WIRE 416 -80 -112 -80
WIRE 560 -80 416 -80
WIRE 560 0 560 -80
WIRE -112 32 -112 0
WIRE 368 32 -112 32
WIRE -112 64 -112 32
WIRE -16 64 -112 64
WIRE 368 64 368 32
WIRE 368 64 320 64
WIRE 560 128 560 80
WIRE 640 128 560 128
WIRE 752 128 704 128
WIRE 880 128 752 128
WIRE 944 128 880 128
WIRE 1040 128 1024 128
WIRE -16 144 -96 144
WIRE 368 144 368 64
WIRE 368 144 320 144
WIRE 752 176 752 128
WIRE 1040 176 1040 128
WIRE 1040 176 960 176
WIRE -336 208 -336 -208
WIRE 960 208 960 176
WIRE -16 224 -128 224
WIRE 416 224 416 -80
WIRE 416 224 320 224
WIRE 880 272 880 128
WIRE -16 304 -48 304
WIRE 384 304 320 304
WIRE 672 304 464 304
WIRE 752 304 752 256
WIRE 752 304 672 304
WIRE -48 352 -48 304
WIRE 464 352 464 304
WIRE 464 352 -48 352
WIRE 560 352 560 128
WIRE -96 432 -96 144
WIRE 0 432 -96 432
WIRE 80 432 0 432
WIRE 96 432 80 432
WIRE 224 432 160 432
WIRE 512 432 224 432
WIRE 672 448 672 304
WIRE 752 480 752 304
WIRE -128 496 -128 224
WIRE 0 496 0 432
WIRE 224 528 224 432
WIRE 416 528 416 224
WIRE 80 576 80 432
WIRE 160 576 80 576
WIRE -336 656 -336 288
WIRE -128 656 -128 560
WIRE -128 656 -336 656
WIRE 0 656 0 576
WIRE 0 656 -128 656
WIRE 224 656 224 624
WIRE 224 656 0 656
WIRE 320 656 224 656
WIRE 384 656 384 304
WIRE 384 656 320 656
WIRE 416 656 416 592
WIRE 416 656 384 656
WIRE 560 656 560 448
WIRE 560 656 416 656
WIRE 672 656 672 512
WIRE 672 656 560 656
WIRE 752 656 752 560
WIRE 752 656 672 656
WIRE 880 656 880 336
WIRE 880 656 752 656
WIRE 960 656 960 288
WIRE 960 656 880 656
WIRE 320 688 320 656
FLAG 320 688 0
SYMBOL mc34063 80 160 M0
SYMATTR InstName U1
SYMBOL res -128 -96 R0
SYMATTR InstName R1
SYMATTR Value 22
SYMATTR SpiceLine tol=1 pwr=0.5
SYMBOL res -16 480 R0
SYMATTR InstName R2
SYMATTR Value 10K
SYMATTR SpiceLine tol=1 pwr=0.1
SYMBOL res 736 464 R0
SYMATTR InstName R3
SYMATTR Value 30.1K
SYMATTR SpiceLine tol=1 pwr=0.1
SYMBOL res 736 160 R0
SYMATTR InstName R5
SYMATTR Value 10Meg
SYMATTR SpiceLine tol=1 pwr=0.1
SYMBOL res 1040 112 R90
WINDOW 0 0 56 VBottom 2
WINDOW 3 32 56 VTop 2
SYMATTR InstName R6
SYMATTR Value 6.8Meg
SYMATTR SpiceLine tol=1 pwr=0.1
SYMBOL cap -144 496 R0
SYMATTR InstName C1
SYMATTR Value 1µ
SYMBOL cap 400 528 R0
SYMATTR InstName C2
SYMATTR Value 0.1µ
SYMBOL cap 656 448 R0
SYMATTR InstName C3
SYMATTR Value 0.1µ
SYMBOL cap 864 272 R0
SYMATTR InstName C4
SYMATTR Value 0.1µ
SYMATTR SpiceLine V=630
SYMBOL pnp 160 624 M180
SYMATTR InstName Q1
SYMATTR Value BC807-40
SYMBOL nmos 512 352 R0
SYMATTR InstName M1
SYMATTR Value IRF840
SYMBOL ind 544 -16 R0
SYMATTR InstName L1
SYMATTR Value 680m
SYMATTR SpiceLine Ipk=0.05 Rser=90 Rpar=709600 Cpar=15.406p
SYMBOL diode 640 144 R270
WINDOW 0 32 32 VTop 2
WINDOW 3 0 32 VBottom 2
SYMATTR InstName D2
SYMATTR Value RFN5TF8S
SYMBOL schottky 96 416 M90
WINDOW 0 0 32 VBottom 2
WINDOW 3 32 32 VTop 2
SYMATTR InstName D1
SYMATTR Value BAS40HM
SYMBOL voltage -336 192 R0
WINDOW 123 0 0 Left 0
WINDOW 39 0 0 Left 0
SYMATTR InstName V1
SYMATTR Value 5
SYMBOL res 944 192 R0
SYMATTR InstName R4
SYMATTR Value 1Meg
TEXT 1232 -680 Left 2 !* Created on Sun Nov 13 19:04:11 EST 2011 using tube.model.finder.PaintKIT\n* Traced by Kevin Kennedy and revised for LTSpice compatibility\n*--------------------------------------------------\n.SUBCKT GM70 1 2 3 ; P G K ;\n+ PARAMS: MU=7.644 EX=1.274 KG1=1455.0 KP=135.0 KVB=24.75 VCT=0.2320\n* Vp_MAX=2000.0 Ip_MAX=0.3 Vg_step=20.0\n*--------------------------------------------------\nE1 7 0 VALUE={V(1,3)/KP*LOG(1+EXP(KP*(1/MU+(VCT+V(2,3))/SQRT(KVB+V(1,3)*V(1,3)))))}\nRE1 7 0 1E9\nG1 1 3 VALUE={(PWR(V(7),EX)+PWRS(V(7),EX))/KG1}\nRCP 1 3 1E9 ; TO AVOID FLOATING NODES\nCCG 2 3 8p ; CATHODE-GRID\nCGP 2 1 12p ; GRID=PLATE\nCCP 1 3 4p ; CATHODE-PLATE\nD3 5 3 DX ; FOR GRID CURRENT\nRGI 2 5 2000 ; FOR GRID CURRENT\n.MODEL DX D(IS=1N RS=1 CJO=10PF TT=1N)\n.ENDS GM70
TEXT 1232 -136 Left 2 !.model IRF840   NMOS(Level=3 Gamma=0 Delta=0 Eta=0 Theta=0 Kappa=0.2 Vmax=0 Xj=0 Tox=100n Uo=600 Phi=.6 Rs=6.382m Kp=20.85u W=.68 L=2u Vto=3.879 Rd=.6703 Rds=2.222MEG Cbd=1.415n Pb=.8 Mj=.5 Fc=.5 Cgso=1.625n Cgdo=133.4p Rg=.6038 Is=56.03p N=1 Tt=710n mfg=International_Rectifier Vds=500 Ron=850m Qg=63n)\n*      Int'l Rectifier   pid=IRFC440   case=TO220\n*      88-08-25 bam   creation
TEXT 1232 104 Left 2 !.model 1N4007 D(IS=7.02767n RS=0.0341512 N=1.80803 EG=1.05743 XTI=5 BV=1000 IBV=5e-08 CJO=1e-11 VJ=0.7 M=0.5 FC=0.5 TT=1e-07 mfg=OnSemi type=silicon)
TEXT -320 1080 Left 2 !.tran 4
TEXT 1240 248 Left 2 !.inc MC34063.sub
TEXT 1320 440 Left 2 !.MODEL DI_1N4007 D  ( IS=76.9p RS=42.0m BV=1.00k IBV=5.00u\n+ CJO=26.5p  M=0.333 N=1.45 TT=4.32u )
