Version 4
SHEET 1 2360 680
WIRE 416 -80 -112 -80
WIRE 560 -80 416 -80
WIRE 1120 -80 560 -80
WIRE 560 0 560 -80
WIRE -112 32 -112 0
WIRE 368 32 -112 32
WIRE -112 64 -112 32
WIRE 0 64 -112 64
WIRE 368 64 368 32
WIRE 368 64 336 64
WIRE 560 128 560 80
WIRE 640 128 560 128
WIRE 752 128 704 128
WIRE 880 128 752 128
WIRE 944 128 880 128
WIRE 1040 128 1024 128
WIRE 0 144 -96 144
WIRE 368 144 368 64
WIRE 368 144 336 144
WIRE 752 176 752 128
WIRE 1040 176 1040 128
WIRE 1040 176 960 176
WIRE 960 192 960 176
WIRE 1120 192 1120 -80
WIRE 0 224 -128 224
WIRE 416 224 416 -80
WIRE 416 224 336 224
WIRE 880 272 880 128
WIRE 0 304 -64 304
WIRE 672 304 336 304
WIRE 752 304 752 256
WIRE 752 304 672 304
WIRE 960 336 960 256
WIRE 992 336 992 304
WIRE 992 336 960 336
WIRE 1184 336 992 336
WIRE 560 352 560 128
WIRE 1120 368 1120 272
WIRE 1184 368 1120 368
WIRE -96 432 -96 144
WIRE 0 432 -96 432
WIRE 80 432 0 432
WIRE 96 432 80 432
WIRE 224 432 160 432
WIRE 512 432 224 432
WIRE 752 432 752 304
WIRE 672 448 672 304
WIRE 1120 464 1120 368
WIRE 992 480 992 336
WIRE -128 496 -128 224
WIRE 0 496 0 432
WIRE 224 528 224 432
WIRE 416 528 416 224
WIRE 80 576 80 432
WIRE 160 576 80 576
WIRE -128 656 -128 560
WIRE -64 656 -64 304
WIRE -64 656 -128 656
WIRE 0 656 0 576
WIRE 0 656 -64 656
WIRE 224 656 224 624
WIRE 224 656 0 656
WIRE 416 656 416 592
WIRE 416 656 224 656
WIRE 560 656 560 448
WIRE 560 656 416 656
WIRE 672 656 672 512
WIRE 672 656 560 656
WIRE 752 656 752 512
WIRE 752 656 672 656
WIRE 880 656 880 336
WIRE 880 656 752 656
WIRE 992 656 992 560
WIRE 992 656 880 656
WIRE 1120 656 1120 544
WIRE 1120 656 992 656
WIRE 1184 656 1120 656
SYMBOL mc34063 240 160 R0
SYMATTR InstName U1
SYMBOL res -128 -96 R0
SYMATTR InstName R1
SYMBOL res -16 480 R0
SYMATTR InstName R2
SYMBOL res 736 416 R0
SYMATTR InstName R3
SYMBOL res 736 160 R0
SYMATTR InstName R4
SYMBOL res 1040 112 R90
WINDOW 0 0 56 VBottom 2
WINDOW 3 32 56 VTop 2
SYMATTR InstName R5
SYMBOL res 976 464 R0
SYMATTR InstName R6
SYMBOL res 1104 448 R0
SYMATTR InstName R7
SYMBOL res 1104 176 R0
SYMATTR InstName R8
SYMBOL res 1360 416 R0
SYMATTR InstName R9
SYMBOL cap -144 496 R0
SYMATTR InstName C1
SYMBOL cap 400 528 R0
SYMATTR InstName C2
SYMBOL cap 656 448 R0
SYMATTR InstName C3
SYMBOL cap 864 272 R0
SYMATTR InstName C4
SYMBOL pnp 160 624 M180
SYMATTR InstName Q1
SYMBOL nmos 512 352 R0
SYMATTR InstName M1
SYMBOL ind 544 -16 R0
SYMATTR InstName L1
SYMBOL diode 640 144 R270
WINDOW 0 32 32 VTop 2
WINDOW 3 0 32 VBottom 2
SYMATTR InstName D2
SYMBOL schottky 96 416 M90
WINDOW 0 0 32 VBottom 2
WINDOW 3 32 32 VTop 2
SYMATTR InstName D1
SYMBOL OpAmps\\UniversalOpamp2 1216 352 R0
SYMATTR InstName U2
SYMBOL OpAmps\\UniversalOpamp2 1952 416 R0
SYMATTR InstName U3
SYMBOL load 944 192 R0
SYMATTR InstName GM
SYMATTR Value ""
TEXT 1232 -680 Left 2 !* Created on Sun Nov 13 19:04:11 EST 2011 using tube.model.finder.PaintKIT\n* Traced by Kevin Kennedy and revised for LTSpice compatibility\n*--------------------------------------------------\n.SUBCKT GM70 1 2 3 ; P G K ;\n+ PARAMS: MU=7.644 EX=1.274 KG1=1455.0 KP=135.0 KVB=24.75 VCT=0.2320\n* Vp_MAX=2000.0 Ip_MAX=0.3 Vg_step=20.0\n*--------------------------------------------------\nE1 7 0 VALUE={V(1,3)/KP*LOG(1+EXP(KP*(1/MU+(VCT+V(2,3))/SQRT(KVB+V(1,3)*V(1,3)))))}\nRE1 7 0 1E9\nG1 1 3 VALUE={(PWR(V(7),EX)+PWRS(V(7),EX))/KG1}\nRCP 1 3 1E9 ; TO AVOID FLOATING NODES\nCCG 2 3 8p ; CATHODE-GRID\nCGP 2 1 12p ; GRID=PLATE\nCCP 1 3 4p ; CATHODE-PLATE\nD3 5 3 DX ; FOR GRID CURRENT\nRGI 2 5 2000 ; FOR GRID CURRENT\n.MODEL DX D(IS=1N RS=1 CJO=10PF TT=1N)\n.ENDS GM70
